MODEL 1
REMARK VINA RESULT:      -8.4      0.000      0.000
REMARK  7 active torsions:
REMARK  status: ('A' for Active; 'I' for Inactive)
REMARK    1  A    between atoms: C1_2  and  N_3 
REMARK    2  A    between atoms: N_3  and  C2_4 
REMARK    3  A    between atoms: C2_4  and  C3_5 
REMARK    4  A    between atoms: N1_8  and  C7_10 
REMARK    5  A    between atoms: N2_17  and  C17_25 
REMARK    6  A    between atoms: C14_19  and  C16_22 
REMARK    7  A    between atoms: C16_22  and  O2_24 
ROOT
ATOM      1  C7  LIG d   1      65.300  58.474  51.890  0.00  0.00     0.210 A 
ATOM      2  C8  LIG d   1      66.399  59.333  52.055  0.00  0.00     0.030 A 
ATOM      3  C9  LIG d   1      67.449  59.395  51.143  0.00  0.00     0.131 A 
ATOM      4  C10 LIG d   1      67.435  58.581  50.010  0.00  0.00    -0.196 A 
ATOM      5  C11 LIG d   1      66.371  57.700  49.750  0.00  0.00     0.087 A 
ATOM      6  C12 LIG d   1      65.322  57.693  50.704  0.00  0.00    -0.009 A 
ATOM      7  F   LIG d   1      64.264  56.898  50.475  0.00  0.00    -0.144 F 
ATOM      8  N2  LIG d   1      66.419  56.889  48.585  0.00  0.00    -0.136 N 
ATOM      9  C13 LIG d   1      67.502  57.004  47.720  0.00  0.00     0.300 A 
ATOM     10  C14 LIG d   1      68.563  57.809  47.868  0.00  0.00    -0.367 A 
ATOM     11  C15 LIG d   1      68.579  58.661  49.073  0.00  0.00     0.574 A 
ATOM     12  O   LIG d   1      69.530  59.414  49.279  0.00  0.00    -0.596 OA
ATOM     13  F1  LIG d   1      66.485  60.152  53.114  0.00  0.00    -0.139 F 
ENDROOT
BRANCH   1  14
ATOM     14  N1  LIG d   1      64.270  58.379  52.813  0.00  0.00    -0.659 N 
ATOM     15  C5  LIG d   1      63.142  59.297  52.909  0.00  0.00     0.322 C 
ATOM     16  C4  LIG d   1      62.669  59.122  54.348  0.00  0.00     0.026 C 
ATOM     17  C3  LIG d   1      62.909  57.638  54.633  0.00  0.00    -0.014 C 
ATOM     18  C6  LIG d   1      64.187  57.332  53.842  0.00  0.00     0.340 C 
BRANCH  17  19
ATOM     19  C2  LIG d   1      63.042  57.346  56.134  0.00  0.00     0.237 C 
BRANCH  19  20
ATOM     20  N   LIG d   1      63.885  56.171  56.394  0.00  0.00    -0.828 N 
ATOM     21  H5  LIG d   1      63.959  55.612  55.543  0.00  0.00     0.358 HD
BRANCH  20  22
ATOM     22  C1  LIG d   1      63.315  55.343  57.463  0.00  0.00     0.222 C 
ATOM     23  C   LIG d   1      63.413  53.854  57.144  0.00  0.00     0.024 C 
ENDBRANCH  20  22
ENDBRANCH  19  20
ENDBRANCH  17  19
ENDBRANCH   1  14
BRANCH   8  24
ATOM     24  C17 LIG d   1      65.339  55.919  48.306  0.00  0.00     0.169 C 
ATOM     25  C18 LIG d   1      65.814  54.488  48.519  0.00  0.00     0.045 C 
ENDBRANCH   8  24
BRANCH  10  26
ATOM     26  C16 LIG d   1      69.643  57.798  46.863  0.00  0.00     0.671 C 
ATOM     27  O1  LIG d   1      69.873  56.836  46.134  0.00  0.00    -0.542 OA
BRANCH  26  28
ATOM     28  O2  LIG d   1      70.370  58.932  46.801  0.00  0.00    -0.577 OA
ATOM     29  H17 LIG d   1      70.535  59.352  47.681  0.00  0.00     0.461 HD
ENDBRANCH  26  28
ENDBRANCH  10  26
TORSDOF 7
ENDMDL
MODEL 2
REMARK VINA RESULT:      -8.3      6.227      9.614
REMARK  7 active torsions:
REMARK  status: ('A' for Active; 'I' for Inactive)
REMARK    1  A    between atoms: C1_2  and  N_3 
REMARK    2  A    between atoms: N_3  and  C2_4 
REMARK    3  A    between atoms: C2_4  and  C3_5 
REMARK    4  A    between atoms: N1_8  and  C7_10 
REMARK    5  A    between atoms: N2_17  and  C17_25 
REMARK    6  A    between atoms: C14_19  and  C16_22 
REMARK    7  A    between atoms: C16_22  and  O2_24 
ROOT
ATOM      1  C7  LIG d   1      72.930  55.919  50.013  0.00  0.00     0.210 A 
ATOM      2  C8  LIG d   1      72.540  56.019  51.359  0.00  0.00     0.030 A 
ATOM      3  C9  LIG d   1      71.354  56.628  51.756  0.00  0.00     0.131 A 
ATOM      4  C10 LIG d   1      70.496  57.171  50.799  0.00  0.00    -0.196 A 
ATOM      5  C11 LIG d   1      70.792  57.108  49.426  0.00  0.00     0.087 A 
ATOM      6  C12 LIG d   1      72.005  56.460  49.080  0.00  0.00    -0.009 A 
ATOM      7  F   LIG d   1      72.308  56.337  47.777  0.00  0.00    -0.144 F 
ATOM      8  N2  LIG d   1      69.886  57.688  48.500  0.00  0.00    -0.136 N 
ATOM      9  C13 LIG d   1      68.719  58.282  48.970  0.00  0.00     0.300 A 
ATOM     10  C14 LIG d   1      68.339  58.395  50.251  0.00  0.00    -0.367 A 
ATOM     11  C15 LIG d   1      69.252  57.828  51.261  0.00  0.00     0.574 A 
ATOM     12  O   LIG d   1      68.972  57.909  52.456  0.00  0.00    -0.596 OA
ATOM     13  F1  LIG d   1      73.306  55.515  52.340  0.00  0.00    -0.139 F 
ENDROOT
BRANCH   1  14
ATOM     14  N1  LIG d   1      74.128  55.349  49.614  0.00  0.00    -0.659 N 
ATOM     15  C5  LIG d   1      74.276  54.009  49.060  0.00  0.00     0.322 C 
ATOM     16  C4  LIG d   1      75.738  53.674  49.336  0.00  0.00     0.026 C 
ATOM     17  C3  LIG d   1      76.455  55.017  49.179  0.00  0.00    -0.014 C 
ATOM     18  C6  LIG d   1      75.430  56.027  49.710  0.00  0.00     0.340 C 
BRANCH  17  19
ATOM     19  C2  LIG d   1      77.791  55.057  49.933  0.00  0.00     0.237 C 
BRANCH  19  20
ATOM     20  N   LIG d   1      77.694  54.430  51.258  0.00  0.00    -0.828 N 
ATOM     21  H5  LIG d   1      77.729  55.152  51.979  0.00  0.00     0.358 HD
BRANCH  20  22
ATOM     22  C1  LIG d   1      78.795  53.483  51.473  0.00  0.00     0.222 C 
ATOM     23  C   LIG d   1      79.764  53.461  50.295  0.00  0.00     0.024 C 
ENDBRANCH  20  22
ENDBRANCH  19  20
ENDBRANCH  17  19
ENDBRANCH   1  14
BRANCH   8  24
ATOM     24  C17 LIG d   1      70.188  57.679  47.053  0.00  0.00     0.169 C 
ATOM     25  C18 LIG d   1      68.913  57.608  46.224  0.00  0.00     0.045 C 
ENDBRANCH   8  24
BRANCH  10  26
ATOM     26  C16 LIG d   1      67.072  59.074  50.586  0.00  0.00     0.671 C 
ATOM     27  O1  LIG d   1      65.974  58.677  50.203  0.00  0.00    -0.542 OA
BRANCH  26  28
ATOM     28  O2  LIG d   1      67.207  60.177  51.349  0.00  0.00    -0.577 OA
ATOM     29  H17 LIG d   1      66.937  60.049  52.292  0.00  0.00     0.461 HD
ENDBRANCH  26  28
ENDBRANCH  10  26
TORSDOF 7
ENDMDL
MODEL 3
REMARK VINA RESULT:      -8.1      1.764      1.994
REMARK  7 active torsions:
REMARK  status: ('A' for Active; 'I' for Inactive)
REMARK    1  A    between atoms: C1_2  and  N_3 
REMARK    2  A    between atoms: N_3  and  C2_4 
REMARK    3  A    between atoms: C2_4  and  C3_5 
REMARK    4  A    between atoms: N1_8  and  C7_10 
REMARK    5  A    between atoms: N2_17  and  C17_25 
REMARK    6  A    between atoms: C14_19  and  C16_22 
REMARK    7  A    between atoms: C16_22  and  O2_24 
ROOT
ATOM      1  C7  LIG d   1      65.369  58.316  53.213  0.00  0.00     0.210 A 
ATOM      2  C8  LIG d   1      66.595  58.678  53.796  0.00  0.00     0.030 A 
ATOM      3  C9  LIG d   1      67.797  58.656  53.093  0.00  0.00     0.131 A 
ATOM      4  C10 LIG d   1      67.813  58.263  51.754  0.00  0.00    -0.196 A 
ATOM      5  C11 LIG d   1      66.635  57.897  51.081  0.00  0.00     0.087 A 
ATOM      6  C12 LIG d   1      65.439  57.955  51.841  0.00  0.00    -0.009 A 
ATOM      7  F   LIG d   1      64.283  57.657  51.226  0.00  0.00    -0.144 F 
ATOM      8  N2  LIG d   1      66.716  57.496  49.721  0.00  0.00    -0.136 N 
ATOM      9  C13 LIG d   1      67.953  57.498  49.084  0.00  0.00     0.300 A 
ATOM     10  C14 LIG d   1      69.133  57.829  49.628  0.00  0.00    -0.367 A 
ATOM     11  C15 LIG d   1      69.113  58.234  51.046  0.00  0.00     0.574 A 
ATOM     12  O   LIG d   1      70.162  58.538  51.612  0.00  0.00    -0.596 OA
ATOM     13  F1  LIG d   1      66.663  59.074  55.076  0.00  0.00    -0.139 F 
ENDROOT
BRANCH   1  14
ATOM     14  N1  LIG d   1      64.175  58.298  53.917  0.00  0.00    -0.659 N 
ATOM     15  C5  LIG d   1      63.043  59.183  53.673  0.00  0.00     0.322 C 
ATOM     16  C4  LIG d   1      62.290  59.164  54.999  0.00  0.00     0.026 C 
ATOM     17  C3  LIG d   1      62.481  57.734  55.506  0.00  0.00    -0.014 C 
ATOM     18  C6  LIG d   1      63.895  57.378  55.030  0.00  0.00     0.340 C 
BRANCH  17  19
ATOM     19  C2  LIG d   1      62.311  57.627  57.028  0.00  0.00     0.237 C 
BRANCH  19  20
ATOM     20  N   LIG d   1      63.025  58.697  57.738  0.00  0.00    -0.828 N 
ATOM     21  H5  LIG d   1      64.031  58.542  57.662  0.00  0.00     0.358 HD
BRANCH  20  22
ATOM     22  C1  LIG d   1      62.650  58.726  59.157  0.00  0.00     0.222 C 
ATOM     23  C   LIG d   1      62.541  57.323  59.746  0.00  0.00     0.024 C 
ENDBRANCH  20  22
ENDBRANCH  19  20
ENDBRANCH  17  19
ENDBRANCH   1  14
BRANCH   8  24
ATOM     24  C17 LIG d   1      65.503  57.062  48.996  0.00  0.00     0.169 C 
ATOM     25  C18 LIG d   1      65.558  55.576  48.670  0.00  0.00     0.045 C 
ENDBRANCH   8  24
BRANCH  10  26
ATOM     26  C16 LIG d   1      70.363  57.760  48.816  0.00  0.00     0.671 C 
ATOM     27  O1  LIG d   1      70.696  56.761  48.182  0.00  0.00    -0.542 OA
BRANCH  26  28
ATOM     28  O2  LIG d   1      71.109  58.883  48.821  0.00  0.00    -0.577 OA
ATOM     29  H17 LIG d   1      71.930  58.818  49.369  0.00  0.00     0.461 HD
ENDBRANCH  26  28
ENDBRANCH  10  26
TORSDOF 7
ENDMDL
MODEL 4
REMARK VINA RESULT:      -8.0      7.950     11.325
REMARK  7 active torsions:
REMARK  status: ('A' for Active; 'I' for Inactive)
REMARK    1  A    between atoms: C1_2  and  N_3 
REMARK    2  A    between atoms: N_3  and  C2_4 
REMARK    3  A    between atoms: C2_4  and  C3_5 
REMARK    4  A    between atoms: N1_8  and  C7_10 
REMARK    5  A    between atoms: N2_17  and  C17_25 
REMARK    6  A    between atoms: C14_19  and  C16_22 
REMARK    7  A    between atoms: C16_22  and  O2_24 
ROOT
ATOM      1  C7  LIG d   1      75.257  55.385  49.955  0.00  0.00     0.210 A 
ATOM      2  C8  LIG d   1      74.661  55.063  51.186  0.00  0.00     0.030 A 
ATOM      3  C9  LIG d   1      73.413  55.547  51.567  0.00  0.00     0.131 A 
ATOM      4  C10 LIG d   1      72.701  56.388  50.711  0.00  0.00    -0.196 A 
ATOM      5  C11 LIG d   1      73.208  56.755  49.452  0.00  0.00     0.087 A 
ATOM      6  C12 LIG d   1      74.475  56.218  49.110  0.00  0.00    -0.009 A 
ATOM      7  F   LIG d   1      74.979  56.506  47.899  0.00  0.00    -0.144 F 
ATOM      8  N2  LIG d   1      72.442  57.623  48.630  0.00  0.00    -0.136 N 
ATOM      9  C13 LIG d   1      71.203  58.068  49.078  0.00  0.00     0.300 A 
ATOM     10  C14 LIG d   1      70.626  57.780  50.253  0.00  0.00    -0.367 A 
ATOM     11  C15 LIG d   1      71.385  56.898  51.160  0.00  0.00     0.574 A 
ATOM     12  O   LIG d   1      70.922  56.604  52.261  0.00  0.00    -0.596 OA
ATOM     13  F1  LIG d   1      75.277  54.255  52.062  0.00  0.00    -0.139 F 
ENDROOT
BRANCH   1  14
ATOM     14  N1  LIG d   1      76.516  54.938  49.585  0.00  0.00    -0.659 N 
ATOM     15  C5  LIG d   1      76.785  53.731  48.814  0.00  0.00     0.322 C 
ATOM     16  C4  LIG d   1      78.229  53.399  49.176  0.00  0.00     0.026 C 
ATOM     17  C3  LIG d   1      78.887  54.769  49.342  0.00  0.00    -0.014 C 
ATOM     18  C6  LIG d   1      77.765  55.628  49.940  0.00  0.00     0.340 C 
BRANCH  17  19
ATOM     19  C2  LIG d   1      80.140  54.711  50.227  0.00  0.00     0.237 C 
BRANCH  19  20
ATOM     20  N   LIG d   1      80.768  53.383  50.206  0.00  0.00    -0.828 N 
ATOM     21  H5  LIG d   1      80.126  52.711  49.783  0.00  0.00     0.358 HD
BRANCH  20  22
ATOM     22  C1  LIG d   1      81.103  52.938  51.564  0.00  0.00     0.222 C 
ATOM     23  C   LIG d   1      80.445  53.812  52.627  0.00  0.00     0.024 C 
ENDBRANCH  20  22
ENDBRANCH  19  20
ENDBRANCH  17  19
ENDBRANCH   1  14
BRANCH   8  24
ATOM     24  C17 LIG d   1      72.965  58.064  47.320  0.00  0.00     0.169 C 
ATOM     25  C18 LIG d   1      72.069  57.594  46.182  0.00  0.00     0.045 C 
ENDBRANCH   8  24
BRANCH  10  26
ATOM     26  C16 LIG d   1      69.307  58.352  50.587  0.00  0.00     0.671 C 
ATOM     27  O1  LIG d   1      68.344  58.312  49.824  0.00  0.00    -0.542 OA
BRANCH  26  28
ATOM     28  O2  LIG d   1      69.233  58.931  51.802  0.00  0.00    -0.577 OA
ATOM     29  H17 LIG d   1      69.748  58.461  52.504  0.00  0.00     0.461 HD
ENDBRANCH  26  28
ENDBRANCH  10  26
TORSDOF 7
ENDMDL
MODEL 5
REMARK VINA RESULT:      -8.0      3.606      5.230
REMARK  7 active torsions:
REMARK  status: ('A' for Active; 'I' for Inactive)
REMARK    1  A    between atoms: C1_2  and  N_3 
REMARK    2  A    between atoms: N_3  and  C2_4 
REMARK    3  A    between atoms: C2_4  and  C3_5 
REMARK    4  A    between atoms: N1_8  and  C7_10 
REMARK    5  A    between atoms: N2_17  and  C17_25 
REMARK    6  A    between atoms: C14_19  and  C16_22 
REMARK    7  A    between atoms: C16_22  and  O2_24 
ROOT
ATOM      1  C7  LIG d   1      68.708  57.926  50.505  0.00  0.00     0.210 A 
ATOM      2  C8  LIG d   1      68.535  58.445  49.211  0.00  0.00     0.030 A 
ATOM      3  C9  LIG d   1      69.569  58.507  48.281  0.00  0.00     0.131 A 
ATOM      4  C10 LIG d   1      70.839  58.041  48.620  0.00  0.00    -0.196 A 
ATOM      5  C11 LIG d   1      71.107  57.491  49.886  0.00  0.00     0.087 A 
ATOM      6  C12 LIG d   1      70.012  57.437  50.785  0.00  0.00    -0.009 A 
ATOM      7  F   LIG d   1      70.210  56.879  51.991  0.00  0.00    -0.144 F 
ATOM      8  N2  LIG d   1      72.423  57.043  50.177  0.00  0.00    -0.136 N 
ATOM      9  C13 LIG d   1      73.406  57.138  49.197  0.00  0.00     0.300 A 
ATOM     10  C14 LIG d   1      73.260  57.641  47.963  0.00  0.00    -0.367 A 
ATOM     11  C15 LIG d   1      71.918  58.141  47.610  0.00  0.00     0.574 A 
ATOM     12  O   LIG d   1      71.717  58.628  46.499  0.00  0.00    -0.596 OA
ATOM     13  F1  LIG d   1      67.342  58.907  48.804  0.00  0.00    -0.139 F 
ENDROOT
BRANCH   1  14
ATOM     14  N1  LIG d   1      67.694  57.897  51.449  0.00  0.00    -0.659 N 
ATOM     15  C5  LIG d   1      66.486  57.086  51.358  0.00  0.00     0.322 C 
ATOM     16  C4  LIG d   1      65.503  57.819  52.265  0.00  0.00     0.026 C 
ATOM     17  C3  LIG d   1      66.383  58.362  53.393  0.00  0.00    -0.014 C 
ATOM     18  C6  LIG d   1      67.697  58.703  52.679  0.00  0.00     0.340 C 
BRANCH  17  19
ATOM     19  C2  LIG d   1      65.748  59.568  54.099  0.00  0.00     0.237 C 
BRANCH  19  20
ATOM     20  N   LIG d   1      66.696  60.681  54.249  0.00  0.00    -0.828 N 
ATOM     21  H5  LIG d   1      67.597  60.319  54.563  0.00  0.00     0.358 HD
BRANCH  20  22
ATOM     22  C1  LIG d   1      66.205  61.661  55.225  0.00  0.00     0.222 C 
ATOM     23  C   LIG d   1      64.692  61.833  55.147  0.00  0.00     0.024 C 
ENDBRANCH  20  22
ENDBRANCH  19  20
ENDBRANCH  17  19
ENDBRANCH   1  14
BRANCH   8  24
ATOM     24  C17 LIG d   1      72.749  56.501  51.512  0.00  0.00     0.169 C 
ATOM     25  C18 LIG d   1      73.854  55.456  51.428  0.00  0.00     0.045 C 
ENDBRANCH   8  24
BRANCH  10  26
ATOM     26  C16 LIG d   1      74.414  57.686  47.045  0.00  0.00     0.671 C 
ATOM     27  O1  LIG d   1      75.117  56.708  46.797  0.00  0.00    -0.542 OA
BRANCH  26  28
ATOM     28  O2  LIG d   1      74.649  58.893  46.491  0.00  0.00    -0.577 OA
ATOM     29  H17 LIG d   1      75.536  58.971  46.059  0.00  0.00     0.461 HD
ENDBRANCH  26  28
ENDBRANCH  10  26
TORSDOF 7
ENDMDL
MODEL 6
REMARK VINA RESULT:      -7.8      2.176      2.801
REMARK  7 active torsions:
REMARK  status: ('A' for Active; 'I' for Inactive)
REMARK    1  A    between atoms: C1_2  and  N_3 
REMARK    2  A    between atoms: N_3  and  C2_4 
REMARK    3  A    between atoms: C2_4  and  C3_5 
REMARK    4  A    between atoms: N1_8  and  C7_10 
REMARK    5  A    between atoms: N2_17  and  C17_25 
REMARK    6  A    between atoms: C14_19  and  C16_22 
REMARK    7  A    between atoms: C16_22  and  O2_24 
ROOT
ATOM      1  C7  LIG d   1      66.746  58.136  51.288  0.00  0.00     0.210 A 
ATOM      2  C8  LIG d   1      67.759  58.190  52.260  0.00  0.00     0.030 A 
ATOM      3  C9  LIG d   1      69.107  58.040  51.950  0.00  0.00     0.131 A 
ATOM      4  C10 LIG d   1      69.498  57.826  50.628  0.00  0.00    -0.196 A 
ATOM      5  C11 LIG d   1      68.559  57.771  49.583  0.00  0.00     0.087 A 
ATOM      6  C12 LIG d   1      67.203  57.948  49.956  0.00  0.00    -0.009 A 
ATOM      7  F   LIG d   1      66.275  57.948  48.984  0.00  0.00    -0.144 F 
ATOM      8  N2  LIG d   1      69.017  57.540  48.259  0.00  0.00    -0.136 N 
ATOM      9  C13 LIG d   1      70.381  57.398  48.025  0.00  0.00     0.300 A 
ATOM     10  C14 LIG d   1      71.358  57.435  48.943  0.00  0.00    -0.367 A 
ATOM     11  C15 LIG d   1      70.941  57.651  50.341  0.00  0.00     0.574 A 
ATOM     12  O   LIG d   1      71.784  57.682  51.235  0.00  0.00    -0.596 OA
ATOM     13  F1  LIG d   1      67.466  58.399  53.553  0.00  0.00    -0.139 F 
ENDROOT
BRANCH   1  14
ATOM     14  N1  LIG d   1      65.398  58.246  51.593  0.00  0.00    -0.659 N 
ATOM     15  C5  LIG d   1      64.562  59.401  51.294  0.00  0.00     0.322 C 
ATOM     16  C4  LIG d   1      63.419  59.276  52.296  0.00  0.00     0.026 C 
ATOM     17  C3  LIG d   1      63.208  57.765  52.421  0.00  0.00    -0.014 C 
ATOM     18  C6  LIG d   1      64.628  57.201  52.283  0.00  0.00     0.340 C 
BRANCH  17  19
ATOM     19  C2  LIG d   1      62.530  57.378  53.742  0.00  0.00     0.237 C 
BRANCH  19  20
ATOM     20  N   LIG d   1      63.283  56.346  54.467  0.00  0.00    -0.828 N 
ATOM     21  H5  LIG d   1      62.856  55.434  54.299  0.00  0.00     0.358 HD
BRANCH  20  22
ATOM     22  C1  LIG d   1      63.290  56.616  55.910  0.00  0.00     0.222 C 
ATOM     23  C   LIG d   1      62.225  57.635  56.303  0.00  0.00     0.024 C 
ENDBRANCH  20  22
ENDBRANCH  19  20
ENDBRANCH  17  19
ENDBRANCH   1  14
BRANCH   8  24
ATOM     24  C17 LIG d   1      68.053  57.432  47.144  0.00  0.00     0.169 C 
ATOM     25  C18 LIG d   1      68.743  57.622  45.799  0.00  0.00     0.045 C 
ENDBRANCH   8  24
BRANCH  10  26
ATOM     26  C16 LIG d   1      72.763  57.247  48.531  0.00  0.00     0.671 C 
ATOM     27  O1  LIG d   1      73.121  56.379  47.737  0.00  0.00    -0.542 OA
BRANCH  26  28
ATOM     28  O2  LIG d   1      73.638  58.103  49.096  0.00  0.00    -0.577 OA
ATOM     29  H17 LIG d   1      74.523  58.122  48.656  0.00  0.00     0.461 HD
ENDBRANCH  26  28
ENDBRANCH  10  26
TORSDOF 7
ENDMDL
MODEL 7
REMARK VINA RESULT:      -7.7      4.692      8.539
REMARK  7 active torsions:
REMARK  status: ('A' for Active; 'I' for Inactive)
REMARK    1  A    between atoms: C1_2  and  N_3 
REMARK    2  A    between atoms: N_3  and  C2_4 
REMARK    3  A    between atoms: C2_4  and  C3_5 
REMARK    4  A    between atoms: N1_8  and  C7_10 
REMARK    5  A    between atoms: N2_17  and  C17_25 
REMARK    6  A    between atoms: C14_19  and  C16_22 
REMARK    7  A    between atoms: C16_22  and  O2_24 
ROOT
ATOM      1  C7  LIG d   1      66.619  59.279  51.987  0.00  0.00     0.210 A 
ATOM      2  C8  LIG d   1      67.343  58.904  53.131  0.00  0.00     0.030 A 
ATOM      3  C9  LIG d   1      67.099  59.451  54.388  0.00  0.00     0.131 A 
ATOM      4  C10 LIG d   1      66.101  60.413  54.547  0.00  0.00    -0.196 A 
ATOM      5  C11 LIG d   1      65.314  60.842  53.464  0.00  0.00     0.087 A 
ATOM      6  C12 LIG d   1      65.595  60.238  52.212  0.00  0.00    -0.009 A 
ATOM      7  F   LIG d   1      64.838  60.584  51.158  0.00  0.00    -0.144 F 
ATOM      8  N2  LIG d   1      64.321  61.832  53.686  0.00  0.00    -0.136 N 
ATOM      9  C13 LIG d   1      64.135  62.334  54.970  0.00  0.00     0.300 A 
ATOM     10  C14 LIG d   1      64.824  61.996  56.069  0.00  0.00    -0.367 A 
ATOM     11  C15 LIG d   1      65.885  60.986  55.895  0.00  0.00     0.574 A 
ATOM     12  O   LIG d   1      66.566  60.639  56.859  0.00  0.00    -0.596 OA
ATOM     13  F1  LIG d   1      68.314  57.980  53.064  0.00  0.00    -0.139 F 
ENDROOT
BRANCH   1  14
ATOM     14  N1  LIG d   1      66.882  58.767  50.726  0.00  0.00    -0.659 N 
ATOM     15  C5  LIG d   1      66.057  57.788  50.029  0.00  0.00     0.322 C 
ATOM     16  C4  LIG d   1      67.026  57.159  49.033  0.00  0.00     0.026 C 
ATOM     17  C3  LIG d   1      67.937  58.320  48.628  0.00  0.00    -0.014 C 
ATOM     18  C6  LIG d   1      68.053  59.141  49.918  0.00  0.00     0.340 C 
BRANCH  17  19
ATOM     19  C2  LIG d   1      69.292  57.839  48.094  0.00  0.00     0.237 C 
BRANCH  19  20
ATOM     20  N   LIG d   1      70.148  58.958  47.675  0.00  0.00    -0.828 N 
ATOM     21  H5  LIG d   1      69.568  59.695  47.273  0.00  0.00     0.358 HD
BRANCH  20  22
ATOM     22  C1  LIG d   1      71.131  58.522  46.675  0.00  0.00     0.222 C 
ATOM     23  C   LIG d   1      70.477  57.751  45.532  0.00  0.00     0.024 C 
ENDBRANCH  20  22
ENDBRANCH  19  20
ENDBRANCH  17  19
ENDBRANCH   1  14
BRANCH   8  24
ATOM     24  C17 LIG d   1      63.506  62.338  52.561  0.00  0.00     0.169 C 
ATOM     25  C18 LIG d   1      63.721  63.831  52.352  0.00  0.00     0.045 C 
ENDBRANCH   8  24
BRANCH  10  26
ATOM     26  C16 LIG d   1      64.514  62.640  57.360  0.00  0.00     0.671 C 
ATOM     27  O1  LIG d   1      63.719  62.172  58.172  0.00  0.00    -0.542 OA
BRANCH  26  28
ATOM     28  O2  LIG d   1      65.171  63.795  57.588  0.00  0.00    -0.577 OA
ATOM     29  H17 LIG d   1      64.598  64.522  57.936  0.00  0.00     0.461 HD
ENDBRANCH  26  28
ENDBRANCH  10  26
TORSDOF 7
ENDMDL
MODEL 8
REMARK VINA RESULT:      -7.7     23.974     26.739
REMARK  7 active torsions:
REMARK  status: ('A' for Active; 'I' for Inactive)
REMARK    1  A    between atoms: C1_2  and  N_3 
REMARK    2  A    between atoms: N_3  and  C2_4 
REMARK    3  A    between atoms: C2_4  and  C3_5 
REMARK    4  A    between atoms: N1_8  and  C7_10 
REMARK    5  A    between atoms: N2_17  and  C17_25 
REMARK    6  A    between atoms: C14_19  and  C16_22 
REMARK    7  A    between atoms: C16_22  and  O2_24 
ROOT
ATOM      1  C7  LIG d   1      41.455  52.971  57.861  0.00  0.00     0.210 A 
ATOM      2  C8  LIG d   1      42.636  53.686  58.123  0.00  0.00     0.030 A 
ATOM      3  C9  LIG d   1      42.647  55.058  58.362  0.00  0.00     0.131 A 
ATOM      4  C10 LIG d   1      41.452  55.777  58.347  0.00  0.00    -0.196 A 
ATOM      5  C11 LIG d   1      40.218  55.147  58.108  0.00  0.00     0.087 A 
ATOM      6  C12 LIG d   1      40.266  53.747  57.889  0.00  0.00    -0.009 A 
ATOM      7  F   LIG d   1      39.106  53.097  57.700  0.00  0.00    -0.144 F 
ATOM      8  N2  LIG d   1      39.036  55.935  58.094  0.00  0.00    -0.136 N 
ATOM      9  C13 LIG d   1      39.125  57.301  58.340  0.00  0.00     0.300 A 
ATOM     10  C14 LIG d   1      40.244  57.999  58.580  0.00  0.00    -0.367 A 
ATOM     11  C15 LIG d   1      41.507  57.238  58.586  0.00  0.00     0.574 A 
ATOM     12  O   LIG d   1      42.573  57.818  58.787  0.00  0.00    -0.596 OA
ATOM     13  F1  LIG d   1      43.826  53.067  58.163  0.00  0.00    -0.139 F 
ENDROOT
BRANCH   1  14
ATOM     14  N1  LIG d   1      41.440  51.613  57.583  0.00  0.00    -0.659 N 
ATOM     15  C5  LIG d   1      42.014  50.577  58.433  0.00  0.00     0.322 C 
ATOM     16  C4  LIG d   1      42.253  49.423  57.465  0.00  0.00     0.026 C 
ATOM     17  C3  LIG d   1      41.082  49.521  56.485  0.00  0.00    -0.014 C 
ATOM     18  C6  LIG d   1      40.847  51.032  56.370  0.00  0.00     0.340 C 
BRANCH  17  19
ATOM     19  C2  LIG d   1      41.391  48.853  55.139  0.00  0.00     0.237 C 
BRANCH  19  20
ATOM     20  N   LIG d   1      42.836  48.788  54.875  0.00  0.00    -0.828 N 
ATOM     21  H5  LIG d   1      43.347  48.944  55.744  0.00  0.00     0.358 HD
BRANCH  20  22
ATOM     22  C1  LIG d   1      43.236  49.804  53.893  0.00  0.00     0.222 C 
ATOM     23  C   LIG d   1      44.142  50.865  54.510  0.00  0.00     0.024 C 
ENDBRANCH  20  22
ENDBRANCH  19  20
ENDBRANCH  17  19
ENDBRANCH   1  14
BRANCH   8  24
ATOM     24  C17 LIG d   1      37.728  55.312  57.801  0.00  0.00     0.169 C 
ATOM     25  C18 LIG d   1      37.363  55.461  56.330  0.00  0.00     0.045 C 
ENDBRANCH   8  24
BRANCH  10  26
ATOM     26  C16 LIG d   1      40.169  59.456  58.805  0.00  0.00     0.671 C 
ATOM     27  O1  LIG d   1      39.628  60.231  58.019  0.00  0.00    -0.542 OA
BRANCH  26  28
ATOM     28  O2  LIG d   1      40.745  59.883  59.946  0.00  0.00    -0.577 OA
ATOM     29  H17 LIG d   1      40.475  60.795  60.216  0.00  0.00     0.461 HD
ENDBRANCH  26  28
ENDBRANCH  10  26
TORSDOF 7
ENDMDL
MODEL 9
REMARK VINA RESULT:      -7.6     35.185     37.983
REMARK  7 active torsions:
REMARK  status: ('A' for Active; 'I' for Inactive)
REMARK    1  A    between atoms: C1_2  and  N_3 
REMARK    2  A    between atoms: N_3  and  C2_4 
REMARK    3  A    between atoms: C2_4  and  C3_5 
REMARK    4  A    between atoms: N1_8  and  C7_10 
REMARK    5  A    between atoms: N2_17  and  C17_25 
REMARK    6  A    between atoms: C14_19  and  C16_22 
REMARK    7  A    between atoms: C16_22  and  O2_24 
ROOT
ATOM      1  C7  LIG d   1      30.433  51.495  57.759  0.00  0.00     0.210 A 
ATOM      2  C8  LIG d   1      30.670  52.241  56.592  0.00  0.00     0.030 A 
ATOM      3  C9  LIG d   1      29.764  53.176  56.100  0.00  0.00     0.131 A 
ATOM      4  C10 LIG d   1      28.563  53.402  56.773  0.00  0.00    -0.196 A 
ATOM      5  C11 LIG d   1      28.243  52.715  57.957  0.00  0.00     0.087 A 
ATOM      6  C12 LIG d   1      29.211  51.789  58.420  0.00  0.00    -0.009 A 
ATOM      7  F   LIG d   1      28.967  51.141  59.571  0.00  0.00    -0.144 F 
ATOM      8  N2  LIG d   1      27.000  52.980  58.591  0.00  0.00    -0.136 N 
ATOM      9  C13 LIG d   1      26.143  53.928  58.040  0.00  0.00     0.300 A 
ATOM     10  C14 LIG d   1      26.349  54.639  56.922  0.00  0.00    -0.367 A 
ATOM     11  C15 LIG d   1      27.616  54.391  56.208  0.00  0.00     0.574 A 
ATOM     12  O   LIG d   1      27.863  54.998  55.168  0.00  0.00    -0.596 OA
ATOM     13  F1  LIG d   1      31.804  52.088  55.891  0.00  0.00    -0.139 F 
ENDROOT
BRANCH   1  14
ATOM     14  N1  LIG d   1      31.313  50.535  58.233  0.00  0.00    -0.659 N 
ATOM     15  C5  LIG d   1      32.300  50.747  59.285  0.00  0.00     0.322 C 
ATOM     16  C4  LIG d   1      33.332  49.655  59.024  0.00  0.00     0.026 C 
ATOM     17  C3  LIG d   1      32.496  48.478  58.518  0.00  0.00    -0.014 C 
ATOM     18  C6  LIG d   1      31.377  49.158  57.720  0.00  0.00     0.340 C 
BRANCH  17  19
ATOM     19  C2  LIG d   1      33.323  47.493  57.680  0.00  0.00     0.237 C 
BRANCH  19  20
ATOM     20  N   LIG d   1      34.709  47.949  57.503  0.00  0.00    -0.828 N 
ATOM     21  H5  LIG d   1      34.710  48.931  57.227  0.00  0.00     0.358 HD
BRANCH  20  22
ATOM     22  C1  LIG d   1      35.393  47.160  56.472  0.00  0.00     0.222 C 
ATOM     23  C   LIG d   1      35.164  45.663  56.654  0.00  0.00     0.024 C 
ENDBRANCH  20  22
ENDBRANCH  19  20
ENDBRANCH  17  19
ENDBRANCH   1  14
BRANCH   8  24
ATOM     24  C17 LIG d   1      26.612  52.243  59.812  0.00  0.00     0.169 C 
ATOM     25  C18 LIG d   1      25.529  51.215  59.514  0.00  0.00     0.045 C 
ENDBRANCH   8  24
BRANCH  10  26
ATOM     26  C16 LIG d   1      25.326  55.597  56.460  0.00  0.00     0.671 C 
ATOM     27  O1  LIG d   1      24.126  55.336  56.429  0.00  0.00    -0.542 OA
BRANCH  26  28
ATOM     28  O2  LIG d   1      25.808  56.793  56.066  0.00  0.00    -0.577 OA
ATOM     29  H17 LIG d   1      26.641  57.062  56.527  0.00  0.00     0.461 HD
ENDBRANCH  26  28
ENDBRANCH  10  26
TORSDOF 7
ENDMDL
